Version 4
SHEET 1 880 680
WIRE 304 -16 224 -16
WIRE 384 -16 304 -16
WIRE 224 16 224 -16
WIRE 160 64 80 64
WIRE 80 128 80 64
WIRE 384 128 384 -16
WIRE 224 176 224 112
WIRE 80 256 80 208
WIRE 224 256 224 176
WIRE 224 256 80 256
WIRE 384 256 384 208
WIRE 384 256 224 256
WIRE 224 272 224 256
FLAG 224 272 0
FLAG 224 176 Emitter
FLAG 80 64 Base
FLAG 304 -16 Collector
SYMBOL voltage 80 224 R180
WINDOW 0 24 96 Left 2
WINDOW 3 24 16 Left 2
WINDOW 123 0 0 Left 0
WINDOW 39 0 0 Left 0
SYMATTR InstName VEB
SYMATTR Value 0.75
SYMBOL voltage 384 224 R180
WINDOW 0 24 96 Left 2
WINDOW 3 24 16 Left 2
WINDOW 123 0 0 Left 0
WINDOW 39 0 0 Left 0
SYMATTR InstName VEC
SYMATTR Value 2
SYMBOL pnp 160 16 R0
SYMATTR InstName Q1
SYMATTR Value 2N3906
TEXT 32 328 Left 2 !.dc VEC 0 4 0.01
