Version 4
SHEET 1 880 680
WIRE 160 -144 160 -208
WIRE 160 -144 16 -144
WIRE 224 -144 160 -144
WIRE 336 -144 224 -144
WIRE 224 -96 224 -144
WIRE 16 0 16 -144
WIRE 224 0 224 -16
WIRE 336 0 224 0
WIRE -144 16 -144 -16
WIRE 336 48 336 0
WIRE 224 80 224 0
WIRE -144 128 -144 80
WIRE 16 128 16 80
WIRE 16 128 -144 128
WIRE 96 128 16 128
WIRE 160 128 96 128
WIRE 16 192 16 128
WIRE 96 192 96 128
WIRE 224 192 224 176
WIRE 336 192 336 112
WIRE 336 192 224 192
WIRE 528 192 336 192
WIRE 96 272 96 256
FLAG -144 -96 0
FLAG 16 272 0
FLAG 96 272 0
FLAG 224 272 0
FLAG 336 -80 0
FLAG 528 192 Output
IOPIN 528 192 Out
FLAG 160 -288 0
SYMBOL npn 160 80 R0
SYMATTR InstName Q1
SYMATTR Value 2N3904
SYMBOL cap -160 16 R0
SYMATTR InstName C1
SYMATTR Value .1µ
SYMBOL voltage -144 0 R180
WINDOW 0 24 96 Left 2
WINDOW 3 24 16 Left 2
WINDOW 123 0 0 Left 0
WINDOW 39 0 0 Left 0
SYMATTR InstName AC1
SYMATTR Value AC 1
SYMBOL res 0 -16 R0
SYMATTR InstName R1
SYMATTR Value 10k
SYMBOL res 0 176 R0
SYMATTR InstName R2
SYMATTR Value 10k
SYMBOL cap 80 192 R0
SYMATTR InstName C2
SYMATTR Value .1µ
SYMBOL res 208 176 R0
SYMATTR InstName R3
SYMATTR Value 470
SYMBOL cap 320 48 R0
SYMATTR InstName C3
SYMATTR Value 10p
SYMBOL ind 208 -112 R0
SYMATTR InstName L1
SYMATTR Value 1µ
SYMBOL cap 320 -144 R0
SYMATTR InstName C4
SYMATTR Value .1µ
SYMBOL voltage 160 -192 R180
WINDOW 0 24 96 Left 2
WINDOW 3 24 16 Left 2
WINDOW 123 0 0 Left 0
WINDOW 39 0 0 Left 0
SYMATTR InstName V2
SYMATTR Value 5
TEXT -384 296 Left 2 ;.tran 0 .20 .10
TEXT -384 328 Left 2 !.ac dec 10 20 20k
